Version 4
SHEET 1 1656 680
WIRE -688 -304 -688 -336
WIRE -496 -304 -496 -336
WIRE -304 -304 -304 -336
WIRE -112 -304 -112 -336
WIRE 64 -304 64 -336
WIRE 240 -304 240 -336
WIRE -688 -272 -688 -304
WIRE -496 -272 -496 -304
WIRE -304 -272 -304 -304
WIRE -112 -272 -112 -304
WIRE 64 -272 64 -304
WIRE 240 -272 240 -304
WIRE 256 16 224 16
WIRE 352 16 336 16
WIRE -704 112 -704 64
WIRE -656 112 -704 112
WIRE -528 112 -528 64
WIRE -528 112 -576 112
WIRE -480 112 -528 112
WIRE -352 112 -352 64
WIRE -352 112 -400 112
WIRE -304 112 -352 112
WIRE -176 112 -176 64
WIRE -176 112 -224 112
WIRE -128 112 -176 112
WIRE 0 112 0 64
WIRE 0 112 -48 112
WIRE 48 112 0 112
WIRE 160 112 160 48
WIRE 160 112 128 112
WIRE 224 112 224 16
WIRE 224 112 160 112
WIRE 256 112 224 112
WIRE 352 128 352 16
WIRE 352 128 320 128
WIRE 416 128 352 128
WIRE 256 144 224 144
WIRE -704 160 -704 112
WIRE -528 160 -528 112
WIRE -352 160 -352 112
WIRE -176 160 -176 112
WIRE 0 160 0 112
WIRE -704 288 -704 240
WIRE -528 288 -528 240
WIRE -528 288 -704 288
WIRE -352 288 -352 240
WIRE -352 288 -528 288
WIRE -176 288 -176 240
WIRE -176 288 -352 288
WIRE 0 288 0 240
WIRE 0 288 -176 288
WIRE 224 288 224 144
WIRE 224 288 0 288
FLAG 240 -144 0
FLAG 64 -144 0
FLAG -112 -144 0
FLAG -304 -144 0
FLAG -880 -272 0
FLAG 304 -208 In1
FLAG 128 -208 In2
FLAG -48 -208 In3
FLAG -240 -208 In4
FLAG -304 -624 0
FLAG -112 -624 0
FLAG 64 -624 0
FLAG 256 -624 0
FLAG 240 -304 n1
FLAG 64 -304 n2
FLAG -112 -304 n3
FLAG -304 -304 n4
FLAG 0 64 n2
FLAG -176 64 n3
FLAG -352 64 n4
FLAG 160 48 n1
FLAG -496 -144 0
FLAG -688 -144 0
FLAG -688 -624 0
FLAG -496 -624 0
FLAG -432 -208 In5
FLAG -624 -208 In6
FLAG -496 -304 n5
FLAG -528 64 n5
FLAG -688 -304 n6
FLAG -704 64 n6
FLAG 256 -880 In1
FLAG -304 -800 0
FLAG 64 -880 In2
FLAG -112 -800 0
FLAG -112 -880 In3
FLAG 64 -800 0
FLAG -304 -880 In4
FLAG 256 -800 0
FLAG -688 -800 0
FLAG -496 -800 0
FLAG -496 -880 In5
FLAG -688 -880 In6
FLAG -688 -704 In6p
FLAG -496 -704 In5p
FLAG -304 -704 In4p
FLAG -112 -704 In3p
FLAG 64 -704 In2p
FLAG 256 -704 In1p
FLAG -624 -400 In6p
FLAG -432 -400 In5p
FLAG -240 -400 In4p
FLAG -48 -400 In3p
FLAG 128 -400 In2p
FLAG 304 -400 In1p
FLAG 0 368 0
FLAG 288 160 0
FLAG 416 128 Vout
SYMBOL res -368 144 R0
SYMATTR InstName R1
SYMATTR Value 2k
SYMBOL res -192 144 R0
SYMATTR InstName R3
SYMATTR Value 2k
SYMBOL res -208 96 R90
WINDOW 0 0 56 VBottom 2
WINDOW 3 32 56 VTop 2
SYMATTR InstName R4
SYMATTR Value 1k
SYMBOL res -16 144 R0
SYMATTR InstName R5
SYMATTR Value 2k
SYMBOL res -32 96 R90
WINDOW 0 0 56 VBottom 2
WINDOW 3 32 56 VTop 2
SYMATTR InstName R6
SYMATTR Value 1k
SYMBOL res 144 96 R90
WINDOW 0 0 56 VBottom 2
WINDOW 3 32 56 VTop 2
SYMATTR InstName R8
SYMATTR Value 1k
SYMBOL cktsym\\nmos3 240 -208 R180
SYMATTR InstName U2
SYMBOL cktsym\\nmos3 64 -208 R180
SYMATTR InstName U3
SYMBOL cktsym\\nmos3 -112 -208 R180
SYMATTR InstName U4
SYMBOL cktsym\\nmos3 -304 -208 R180
SYMATTR InstName U5
SYMBOL cktsym\\vdd -880 -352 R0
SYMATTR InstName U1
SYMBOL voltage -880 -368 R0
WINDOW 123 0 0 Left 0
WINDOW 39 0 0 Left 0
SYMATTR InstName V8
SYMATTR Value 5V
SYMBOL voltage 256 -720 R0
WINDOW 3 24 44 Invisible 2
WINDOW 123 0 0 Left 0
WINDOW 39 0 0 Left 0
SYMATTR Value PULSE({5-Vhigh} 5 0 0.01 0.01 32 64 1)
SYMATTR InstName V1
SYMBOL voltage 64 -720 R0
WINDOW 3 24 44 Invisible 2
WINDOW 123 0 0 Left 0
WINDOW 39 0 0 Left 0
SYMATTR Value PULSE({5-Vhigh} 5 0 0.01 0.01 16 32 2)
SYMATTR InstName V2
SYMBOL voltage -112 -720 R0
WINDOW 3 24 44 Invisible 2
WINDOW 123 0 0 Left 0
WINDOW 39 0 0 Left 0
SYMATTR Value PULSE({5-Vhigh} 5 0 0.01 0.01 8 16 4)
SYMATTR InstName V3
SYMBOL voltage -304 -720 R0
WINDOW 3 24 44 Invisible 2
WINDOW 123 0 0 Left 0
WINDOW 39 0 0 Left 0
SYMATTR Value PULSE({5-Vhigh} 5 0 0.01 0.01 4 8 8)
SYMATTR InstName V4
SYMBOL cktsym\\pmos3 -112 -400 R180
SYMATTR InstName U7
SYMBOL cktsym\\pmos3 64 -400 R180
SYMATTR InstName U8
SYMBOL cktsym\\pmos3 240 -400 R180
SYMATTR InstName U9
SYMBOL cktsym\\pmos3 -304 -400 R180
SYMATTR InstName U10
SYMBOL cktsym\\vdd -304 -464 R0
SYMATTR InstName U11
SYMBOL cktsym\\vdd -112 -464 R0
SYMATTR InstName U12
SYMBOL cktsym\\vdd 64 -464 R0
SYMATTR InstName U13
SYMBOL cktsym\\vdd 240 -464 R0
SYMATTR InstName U14
SYMBOL res 352 0 R90
WINDOW 0 0 56 VBottom 2
WINDOW 3 32 56 VTop 2
SYMATTR InstName R2
SYMATTR Value 2k
SYMBOL Opamps\\UniversalOpamp2 288 128 R0
SYMATTR InstName U6
SYMATTR Value2 Avol=316E+03 GBW=10Meg Slew=7Meg
SYMATTR SpiceLine Avol=316E+03 GBW=10Meg Slew=7Meg
SYMATTR SpiceLine2 en=0 enk=0 ink=0 Rin=1E+13
SYMBOL cktsym\\vdd 288 96 R0
SYMATTR InstName U15
SYMBOL res -720 144 R0
SYMATTR InstName R7
SYMATTR Value 1k
SYMBOL res -544 144 R0
SYMATTR InstName R9
SYMATTR Value 2k
SYMBOL res -560 96 R90
WINDOW 0 0 56 VBottom 2
WINDOW 3 32 56 VTop 2
SYMATTR InstName R10
SYMATTR Value 1k
SYMBOL res -384 96 R90
WINDOW 0 0 56 VBottom 2
WINDOW 3 32 56 VTop 2
SYMATTR InstName R11
SYMATTR Value 1k
SYMBOL cktsym\\nmos3 -496 -208 R180
SYMATTR InstName U16
SYMBOL cktsym\\nmos3 -688 -208 R180
SYMATTR InstName U17
SYMBOL voltage -496 -720 R0
WINDOW 3 24 44 Invisible 2
WINDOW 123 0 0 Left 0
WINDOW 39 0 0 Left 0
SYMATTR Value PULSE({5-Vhigh} 5 0 0.01 0.01 2 4 16)
SYMATTR InstName V5
SYMBOL voltage -688 -720 R0
WINDOW 3 24 44 Invisible 2
WINDOW 123 0 0 Left 0
WINDOW 39 0 0 Left 0
SYMATTR Value PULSE({5-Vhigh} 5 0 0.01 0.01 1 2 32)
SYMATTR InstName V6
SYMBOL cktsym\\pmos3 -496 -400 R180
SYMATTR InstName U18
SYMBOL cktsym\\pmos3 -688 -400 R180
SYMATTR InstName U19
SYMBOL cktsym\\vdd -688 -464 R0
SYMATTR InstName U20
SYMBOL cktsym\\vdd -496 -464 R0
SYMATTR InstName U21
SYMBOL voltage 256 -896 R0
WINDOW 3 24 44 Invisible 2
WINDOW 123 0 0 Left 0
WINDOW 39 0 0 Left 0
SYMATTR Value PULSE(0 {Vhigh} 0 0.01 0.01 32 64 1)
SYMATTR InstName V9
SYMBOL voltage 64 -896 R0
WINDOW 3 24 44 Invisible 2
WINDOW 123 0 0 Left 0
WINDOW 39 0 0 Left 0
SYMATTR Value PULSE(0 {Vhigh} 0 0.01 0.01 16 32 2)
SYMATTR InstName V10
SYMBOL voltage -112 -896 R0
WINDOW 3 24 44 Invisible 2
WINDOW 123 0 0 Left 0
WINDOW 39 0 0 Left 0
SYMATTR Value PULSE(0 {Vhigh} 0 0.01 0.01 8 16 4)
SYMATTR InstName V11
SYMBOL voltage -304 -896 R0
WINDOW 3 24 44 Invisible 2
WINDOW 123 0 0 Left 0
WINDOW 39 0 0 Left 0
SYMATTR Value PULSE(0 {Vhigh} 0 0.01 0.01 4 8 8)
SYMATTR InstName V12
SYMBOL voltage -496 -896 R0
WINDOW 3 24 44 Invisible 2
WINDOW 123 0 0 Left 0
WINDOW 39 0 0 Left 0
SYMATTR Value PULSE(0 {Vhigh} 0 0.01 0.01 2 4 16)
SYMATTR InstName V13
SYMBOL voltage -688 -896 R0
WINDOW 3 24 44 Invisible 2
WINDOW 123 0 0 Left 0
WINDOW 39 0 0 Left 0
SYMATTR Value PULSE(0 {Vhigh} 0 0.01 0.01 1 2 32)
SYMATTR InstName V14
SYMBOL voltage 0 272 R0
WINDOW 123 0 0 Left 0
WINDOW 39 0 0 Left 0
SYMATTR InstName V15
SYMATTR Value 2.5
TEXT 16 592 Left 2 !.tran 65
TEXT 16 616 Left 2 !.include engr2420.sub
TEXT 16 640 Left 2 !.param Vhigh=0.8v
