Version 4
SHEET 1 1176 680
FLAG 512 336 Vout
FLAG 1056 288 0
FLAG 976 288 0
FLAG 896 288 0
FLAG 816 288 0
FLAG -64 240 0
FLAG 1120 224 In1
FLAG 1040 224 In2
FLAG 960 224 In3
FLAG 880 224 In4
FLAG 400 480 In1
FLAG 112 560 0
FLAG 304 480 In2
FLAG 208 560 0
FLAG 208 480 In3
FLAG 304 560 0
FLAG 112 480 In4
FLAG 400 560 0
FLAG 880 96 In4
FLAG 960 96 In3
FLAG 1040 96 In2
FLAG 1120 96 In1
FLAG 1056 160 n1
FLAG 976 160 n2
FLAG 896 160 n3
FLAG 816 160 n4
FLAG 512 256 n1
FLAG 432 256 n2
FLAG 352 256 n3
FLAG 272 256 n4
FLAG 192 336 0
FLAG 672 400 In1
FLAG 752 400 In2
FLAG 832 400 In3
FLAG 912 400 In4
SYMBOL res 256 240 R0
SYMATTR InstName R1
SYMATTR Value 2k
SYMBOL res 288 320 R90
WINDOW 0 0 56 VBottom 2
WINDOW 3 32 56 VTop 2
SYMATTR InstName R2
SYMATTR Value 2k
SYMBOL res 336 240 R0
SYMATTR InstName R3
SYMATTR Value 2k
SYMBOL res 368 320 R90
WINDOW 0 0 56 VBottom 2
WINDOW 3 32 56 VTop 2
SYMATTR InstName R4
SYMATTR Value 1k
SYMBOL res 416 240 R0
SYMATTR InstName R5
SYMATTR Value 2k
SYMBOL res 448 320 R90
WINDOW 0 0 56 VBottom 2
WINDOW 3 32 56 VTop 2
SYMATTR InstName R6
SYMATTR Value 1k
SYMBOL res 496 240 R0
SYMATTR InstName R7
SYMATTR Value 2k
SYMBOL res 528 320 R90
WINDOW 0 0 56 VBottom 2
WINDOW 3 32 56 VTop 2
SYMATTR InstName R8
SYMATTR Value 1k
SYMBOL cktsym\\nmos3 1056 224 R180
SYMATTR InstName U2
SYMBOL cktsym\\nmos3 976 224 R180
SYMATTR InstName U3
SYMBOL cktsym\\nmos3 896 224 R180
SYMATTR InstName U4
SYMBOL cktsym\\nmos3 816 224 R180
SYMATTR InstName U5
SYMBOL cktsym\\vdd -64 160 R0
SYMATTR InstName U1
SYMBOL voltage -64 144 R0
WINDOW 123 0 0 Left 0
WINDOW 39 0 0 Left 0
SYMATTR InstName V1
SYMATTR Value 5V
SYMBOL voltage 400 464 R0
WINDOW 3 24 44 Invisible 2
WINDOW 123 0 0 Left 0
WINDOW 39 0 0 Left 0
SYMATTR InstName V5
SYMATTR Value PULSE(0 1 0 0.01 0.01 8 16 1)
SYMBOL voltage 304 464 R0
WINDOW 3 24 44 Invisible 2
WINDOW 123 0 0 Left 0
WINDOW 39 0 0 Left 0
SYMATTR InstName V2
SYMATTR Value PULSE(0 1 0 0.01 0.01 4 8 2)
SYMBOL voltage 208 464 R0
WINDOW 3 24 44 Invisible 2
WINDOW 123 0 0 Left 0
WINDOW 39 0 0 Left 0
SYMATTR InstName V3
SYMATTR Value PULSE(0 1 0 0.01 0.01 2 4 4)
SYMBOL voltage 112 464 R0
WINDOW 3 24 44 Invisible 2
WINDOW 123 0 0 Left 0
WINDOW 39 0 0 Left 0
SYMATTR InstName V4
SYMATTR Value PULSE(0 1 0 0.01 0.01 1 2 8)
SYMBOL cktsym\\pmos3 896 96 R180
SYMATTR InstName U7
SYMBOL cktsym\\pmos3 976 96 R180
SYMATTR InstName U8
SYMBOL cktsym\\pmos3 1056 96 R180
SYMATTR InstName U9
SYMBOL cktsym\\pmos3 816 96 R180
SYMATTR InstName U10
SYMBOL cktsym\\vdd 816 32 R0
SYMATTR InstName U11
SYMBOL cktsym\\vdd 896 32 R0
SYMATTR InstName U12
SYMBOL cktsym\\vdd 976 32 R0
SYMATTR InstName U13
SYMBOL cktsym\\vdd 1056 32 R0
SYMATTR InstName U14
SYMBOL diode 176 160 R0
SYMATTR InstName D1
SYMBOL cktsym\\vdd 512 336 R90
SYMATTR InstName U6
TEXT -98 584 Left 2 !.tran 17
TEXT -96 608 Left 2 !.include engr2420.sub
