Version 4
SHEET 1 1656 680
WIRE -304 -304 -304 -336
WIRE -112 -304 -112 -336
WIRE 64 -304 64 -336
WIRE 240 -304 240 -336
WIRE -304 -272 -304 -304
WIRE -112 -272 -112 -304
WIRE 64 -272 64 -304
WIRE 240 -272 240 -304
WIRE 256 16 224 16
WIRE 352 16 336 16
WIRE -352 112 -352 64
WIRE -304 112 -352 112
WIRE -176 112 -176 64
WIRE -176 112 -224 112
WIRE -128 112 -176 112
WIRE 0 112 0 64
WIRE 0 112 -48 112
WIRE 48 112 0 112
WIRE 160 112 160 48
WIRE 160 112 128 112
WIRE 224 112 224 16
WIRE 224 112 160 112
WIRE 256 112 224 112
WIRE 352 128 352 16
WIRE 352 128 320 128
WIRE 416 128 352 128
WIRE 256 144 224 144
WIRE -352 160 -352 112
WIRE -176 160 -176 112
WIRE 0 160 0 112
WIRE 224 160 224 144
FLAG 240 -144 0
FLAG 64 -144 0
FLAG -112 -144 0
FLAG -304 -144 0
FLAG 1072 496 0
FLAG 304 -208 In1
FLAG 128 -208 In2
FLAG -48 -208 In3
FLAG -240 -208 In4
FLAG 400 480 In1
FLAG 112 560 0
FLAG 304 480 In2
FLAG 208 560 0
FLAG 208 480 In3
FLAG 304 560 0
FLAG 112 480 In4
FLAG 400 560 0
FLAG -240 -400 In4
FLAG -48 -400 In3
FLAG 128 -400 In2
FLAG 304 -400 In1
FLAG 240 -304 n1
FLAG 64 -304 n2
FLAG -112 -304 n3
FLAG -304 -304 n4
FLAG 0 64 n2
FLAG -176 64 n3
FLAG -352 64 n4
FLAG -352 240 0
FLAG -176 240 0
FLAG 0 240 0
FLAG 288 160 0
FLAG 224 160 0
FLAG 416 128 Vout
FLAG 160 48 n1
SYMBOL res -368 144 R0
SYMATTR InstName R1
SYMATTR Value 1k
SYMBOL res -192 144 R0
SYMATTR InstName R3
SYMATTR Value 2k
SYMBOL res -208 96 R90
WINDOW 0 0 56 VBottom 2
WINDOW 3 32 56 VTop 2
SYMATTR InstName R4
SYMATTR Value 1k
SYMBOL res -16 144 R0
SYMATTR InstName R5
SYMATTR Value 2k
SYMBOL res -32 96 R90
WINDOW 0 0 56 VBottom 2
WINDOW 3 32 56 VTop 2
SYMATTR InstName R6
SYMATTR Value 1k
SYMBOL res 144 96 R90
WINDOW 0 0 56 VBottom 2
WINDOW 3 32 56 VTop 2
SYMATTR InstName R8
SYMATTR Value 1k
SYMBOL cktsym\\nmos3 240 -208 R180
SYMATTR InstName U2
SYMBOL cktsym\\nmos3 64 -208 R180
SYMATTR InstName U3
SYMBOL cktsym\\nmos3 -112 -208 R180
SYMATTR InstName U4
SYMBOL cktsym\\nmos3 -304 -208 R180
SYMATTR InstName U5
SYMBOL cktsym\\vdd 1072 416 R0
SYMATTR InstName U1
SYMBOL voltage 1072 400 R0
WINDOW 123 0 0 Left 0
WINDOW 39 0 0 Left 0
SYMATTR InstName V1
SYMATTR Value 5V
SYMBOL voltage 400 464 R0
WINDOW 3 24 44 Invisible 2
WINDOW 123 0 0 Left 0
WINDOW 39 0 0 Left 0
SYMATTR Value PULSE(0 1 0 0.01 0.01 8 16 1)
SYMATTR InstName V5
SYMBOL voltage 304 464 R0
WINDOW 3 24 44 Invisible 2
WINDOW 123 0 0 Left 0
WINDOW 39 0 0 Left 0
SYMATTR Value PULSE(0 1 0 0.01 0.01 4 8 2)
SYMATTR InstName V2
SYMBOL voltage 208 464 R0
WINDOW 3 24 44 Invisible 2
WINDOW 123 0 0 Left 0
WINDOW 39 0 0 Left 0
SYMATTR Value PULSE(0 1 0 0.01 0.01 2 4 4)
SYMATTR InstName V3
SYMBOL voltage 112 464 R0
WINDOW 3 24 44 Invisible 2
WINDOW 123 0 0 Left 0
WINDOW 39 0 0 Left 0
SYMATTR Value PULSE(0 1 0 0.01 0.01 1 2 8)
SYMATTR InstName V4
SYMBOL cktsym\\pmos3 -112 -400 R180
SYMATTR InstName U7
SYMBOL cktsym\\pmos3 64 -400 R180
SYMATTR InstName U8
SYMBOL cktsym\\pmos3 240 -400 R180
SYMATTR InstName U9
SYMBOL cktsym\\pmos3 -304 -400 R180
SYMATTR InstName U10
SYMBOL cktsym\\vdd -304 -464 R0
SYMATTR InstName U11
SYMBOL cktsym\\vdd -112 -464 R0
SYMATTR InstName U12
SYMBOL cktsym\\vdd 64 -464 R0
SYMATTR InstName U13
SYMBOL cktsym\\vdd 240 -464 R0
SYMATTR InstName U14
SYMBOL res 352 0 R90
WINDOW 0 0 56 VBottom 2
WINDOW 3 32 56 VTop 2
SYMATTR InstName R2
SYMATTR Value 2k
SYMBOL Opamps\\UniversalOpamp2 288 128 R0
SYMATTR InstName U6
SYMATTR Value2 Avol=316E+03 GBW=10Meg Slew=7Meg
SYMATTR SpiceLine Avol=316E+03 GBW=10Meg Slew=7Meg
SYMATTR SpiceLine2 en=0 enk=0 ink=0 Rin=1E+13
SYMBOL cktsym\\vdd 288 96 R0
SYMATTR InstName U15
TEXT -96 584 Left 2 !.tran 17
TEXT -96 608 Left 2 !.include engr2420.sub
