Version 4
SHEET 1 880 680
FLAG 192 336 0
FLAG 512 336 Vout
FLAG 272 128 0
FLAG 352 128 0
FLAG 432 128 0
FLAG 512 128 0
FLAG -64 240 0
SYMBOL res 256 240 R0
SYMATTR InstName R1
SYMATTR Value 1k
SYMBOL res 288 320 R90
WINDOW 0 0 56 VBottom 2
WINDOW 3 32 56 VTop 2
SYMATTR InstName R2
SYMATTR Value 2k
SYMBOL res 336 240 R0
SYMATTR InstName R3
SYMATTR Value 1k
SYMBOL res 368 320 R90
WINDOW 0 0 56 VBottom 2
WINDOW 3 32 56 VTop 2
SYMATTR InstName R4
SYMATTR Value 2k
SYMBOL res 416 240 R0
SYMATTR InstName R5
SYMATTR Value 1k
SYMBOL res 448 320 R90
WINDOW 0 0 56 VBottom 2
WINDOW 3 32 56 VTop 2
SYMATTR InstName R6
SYMATTR Value 2k
SYMBOL res 496 240 R0
SYMATTR InstName R7
SYMATTR Value 1k
SYMBOL res 528 320 R90
WINDOW 0 0 56 VBottom 2
WINDOW 3 32 56 VTop 2
SYMATTR InstName R8
SYMATTR Value 2k
SYMBOL cktsym\\nmos3 272 192 R0
SYMATTR InstName U2
SYMBOL cktsym\\nmos3 352 192 R0
SYMATTR InstName U3
SYMBOL cktsym\\nmos3 432 192 R0
SYMATTR InstName U4
SYMBOL cktsym\\nmos3 512 192 R0
SYMATTR InstName U5
SYMBOL cktsym\\vdd -64 160 R0
SYMATTR InstName U1
SYMBOL voltage -64 144 R0
WINDOW 123 0 0 Left 0
WINDOW 39 0 0 Left 0
SYMATTR InstName V1
SYMATTR Value 5V
